Circuit: * C:\Users\colte\Documents\FIU\Classes\SeniorDesign\FoodTags\FoodTagsHardware\AlternativeDesign\FoodTag_AM_Transmitter.asc

WARNING: Node N013 is floating.

Direct Newton iteration for .op point succeeded.
.step r=1
.step r=10001
Fatal Error: Singular matrix:  check node n011
   Iteration No. 2

This circuit has floating nodes.
