Circuit: * C:\Users\colte\Documents\FIU\Classes\SeniorDesign\FoodTags\FoodTagsHardware\AlternativeDesign\LTspiceDesign\Draft1.asc

L1: both pins shorted together -- ignoring.
WARNING: Node NC_02 is floating.
WARNING: Node N002 is floating.

WARNING: Less than two connections to node NC_01.  This node is used by V1.
WARNING: Less than two connections to node NC_02.  This node is used by V1.
Direct Newton iteration for .op point succeeded.
.step r=1
.step r=10001
.step r=20001
.step r=30001
.step r=40001
.step r=50001
.step r=60001
.step r=70001
.step r=80001
.step r=90001
.step r=100000

Date: Tue Apr 13 18:27:43 2021
Total elapsed time: 0.555 seconds.

tnom = 27
temp = 27
method = modified trap
totiter = 2107
traniter = 2082
tranpoints = 1042
accept = 1042
rejected = 0
matrix size = 11
fillins = 8
solver = Normal
Matrix Compiler1:      62 opcodes  0.7/[0.1]/0.2
Matrix Compiler2: 971 bytes object code size  0.1/0.1/[0.1]

