Circuit: * C:\Users\colte\Documents\FIU\Classes\SeniorDesign\FoodTags\FoodTagsHardware\AlternativeDesign\LTspiceDesign\FoodTag_Power_Test.asc

Direct Newton iteration for .op point succeeded.

Date: Fri Apr 16 21:26:12 2021
Total elapsed time: 0.038 seconds.

tnom = 27
temp = 27
method = modified trap
totiter = 2092
traniter = 2088
tranpoints = 1045
accept = 1045
rejected = 0
matrix size = 7
fillins = 1
solver = Normal
Matrix Compiler1: 536 bytes object code size  0.1/0.1/[0.1]
Matrix Compiler2: off  [0.0]/0.1/0.1

